7

C	-3.0161300000	0.1802400000	0.1279600000
C	-3.6670300000	1.5316600000	0.1086600000
H	-3.2049500000	2.1886700000	0.8414700000
H	-4.7307300000	1.4144600000	0.3294400000
H	-3.5950500000	1.9625600000	-0.8918000000
O	-2.1672400000	-0.1515700000	0.9061900000
H	-3.3763700000	-0.5341200000	-0.6389000000
