7
Coordinates from ORCA-job product_opt
  C    -4.278582891000      1.484517704000      0.033611319000
  C    -3.070429291000      0.911286109000      0.052178795000
  H    -2.193945306000      1.412820258000      0.468350316000
  H    -3.806504917000      3.140723015000      0.865082353000
  H    -2.937113236000     -0.087694627000     -0.356606677000
  O    -4.609602191000      2.722460893000      0.502765488000
  H    -5.158632167000      0.988606648000     -0.380771595000

