20
# (36) 1,4-dimethoxybenzene_0_1
C -0.939388 -1.034806 -0.000000
C -1.370484 0.294860 -0.000000
C -0.423222 1.319596 -0.000000
C 0.939388 1.034806 0.000000
C 1.370484 -0.294860 -0.000000
C 0.423222 -1.319596 -0.000000
H 0.765584 -2.348743 -0.000000
H -1.648085 -1.852532 -0.000000
O -2.686523 0.686541 -0.000000
C -3.679809 -0.332575 0.000000
H -3.608669 -0.963481 0.893874
H -4.641349 0.183855 0.000001
H -3.608670 -0.963481 -0.893873
H -0.765584 2.348743 0.000000
O 2.686523 -0.686541 0.000000
C 3.679809 0.332575 0.000000
H 4.641349 -0.183855 0.000000
H 3.608670 0.963481 -0.893874
H 3.608670 0.963481 0.893874
H 1.648085 1.852532 0.000000
